@<TRIPOS>MOLECULE
1A28_ligand
53 56 1                 
SMALL
USER_CHARGES
@<TRIPOS>ATOM
1	   C	21.206	9.935	63.081	C.3	1	UNK0	0.000	
2	   C	21.241	9.446	64.551	C.3	1	UNK0	0.000	
3	   C	22.000	8.125	64.630	C.2	1	UNK0	0.000	
4	   O	21.701	7.301	65.512	O.2	1	UNK0	0.000	
5	   C	23.118	7.872	63.734	C.2	1	UNK0	0.000	
6	   C	23.453	8.727	62.785	C.2	1	UNK0	0.000	
7	   C	24.697	8.443	61.951	C.3	1	UNK0	0.000	
8	   C	24.449	8.637	60.443	C.3	1	UNK0	0.000	
9	   C	23.789	9.997	60.098	C.3	1	UNK0	0.000	
10	   C	22.434	10.095	60.872	C.3	1	UNK0	0.000	
11	   C	22.614	10.023	62.434	C.3	1	UNK0	0.000	
12	   C	21.633	11.354	60.450	C.3	1	UNK0	0.000	
13	   C	21.432	11.434	58.911	C.3	1	UNK0	0.000	
14	   C	22.786	11.404	58.169	C.3	1	UNK0	0.000	
15	   C	23.483	10.060	58.598	C.3	1	UNK0	0.000	
16	   C	24.674	9.918	57.618	C.3	1	UNK0	0.000	
17	   C	24.072	10.450	56.267	C.3	1	UNK0	0.000	
18	   C	22.714	11.149	56.627	C.3	1	UNK0	0.000	
19	   C	23.659	12.677	58.454	C.3	1	UNK0	0.000	
20	   C	23.427	11.246	63.007	C.3	1	UNK0	0.000	
21	   C	22.375	12.388	55.781	C.2	1	UNK0	0.000	
22	   O	23.212	12.876	55.052	O.2	1	UNK0	0.000	
23	   C	21.009	12.976	55.857	C.3	1	UNK0	0.000	
24	   H	20.611	9.254	62.510	 H	1	UNK0	0.000	
25	   H	20.794	10.922	63.083	 H	1	UNK0	0.000	
26	   H	20.241	9.304	64.904	 H	1	UNK0	0.000	
27	   H	21.733	10.177	65.158	 H	1	UNK0	0.000	
28	   H	23.663	7.002	63.843	 H	1	UNK0	0.000	
29	   H	25.477	9.108	62.259	 H	1	UNK0	0.000	
30	   H	24.969	7.420	62.108	 H	1	UNK0	0.000	
31	   H	25.388	8.577	59.934	 H	1	UNK0	0.000	
32	   H	23.771	7.869	60.133	 H	1	UNK0	0.000	
33	   H	24.450	10.794	60.368	 H	1	UNK0	0.000	
34	   H	21.864	9.232	60.596	 H	1	UNK0	0.000	
35	   H	20.673	11.326	60.922	 H	1	UNK0	0.000	
36	   H	22.191	12.215	60.753	 H	1	UNK0	0.000	
37	   H	20.841	10.601	58.592	 H	1	UNK0	0.000	
38	   H	20.940	12.356	58.681	 H	1	UNK0	0.000	
39	   H	22.855	9.198	58.510	 H	1	UNK0	0.000	
40	   H	25.505	10.514	57.932	 H	1	UNK0	0.000	
41	   H	25.053	8.920	57.551	 H	1	UNK0	0.000	
42	   H	24.741	11.153	55.816	 H	1	UNK0	0.000	
43	   H	23.923	9.652	55.570	 H	1	UNK0	0.000	
44	   H	21.884	10.521	56.379	 H	1	UNK0	0.000	
45	   H	24.582	12.604	57.917	 H	1	UNK0	0.000	
46	   H	23.861	12.744	59.503	 H	1	UNK0	0.000	
47	   H	23.130	13.551	58.136	 H	1	UNK0	0.000	
48	   H	24.391	11.282	62.544	 H	1	UNK0	0.000	
49	   H	23.543	11.133	64.065	 H	1	UNK0	0.000	
50	   H	22.899	12.153	62.801	 H	1	UNK0	0.000	
51	   H	20.950	13.825	55.209	 H	1	UNK0	0.000	
52	   H	20.807	13.280	56.863	 H	1	UNK0	0.000	
53	   H	20.289	12.245	55.554	 H	1	UNK0	0.000	
@<TRIPOS>BOND
1 1 2 1
2 1 11 1
3 1 24 1
4 1 25 1
5 2 3 1
6 2 26 1
7 2 27 1
8 3 4 2
9 3 5 1
10 5 6 2
11 5 28 1
12 6 7 1
13 6 11 1
14 7 8 1
15 7 29 1
16 7 30 1
17 8 9 1
18 8 31 1
19 8 32 1
20 9 10 1
21 9 15 1
22 9 33 1
23 10 11 1
24 10 12 1
25 10 34 1
26 11 20 1
27 12 13 1
28 12 35 1
29 12 36 1
30 13 14 1
31 13 37 1
32 13 38 1
33 14 15 1
34 14 18 1
35 14 19 1
36 15 16 1
37 15 39 1
38 16 17 1
39 16 40 1
40 16 41 1
41 17 18 1
42 17 42 1
43 17 43 1
44 18 21 1
45 18 44 1
46 19 45 1
47 19 46 1
48 19 47 1
49 20 48 1
50 20 49 1
51 20 50 1
52 21 22 2
53 21 23 1
54 23 51 1
55 23 52 1
56 23 53 1
@<TRIPOS>SUBSTRUCTURE
1	UNK0	1	GROUP	1 ****	UNK
